examples/cigre/opendss/Kersting6p1_Curr_Seq.Txt

SYMMETRICAL COMPONENT CURRENTS BY CIRCUIT ELEMENT (first 3 phases)

Element          Term      I1         I2         %I2/I1    I0         %I0/I1   %Normal %Emergency

"VSOURCE.SOURCE"   1  1.7192E005   8.415E-005     0.00  3.6752E-006     0.00      0.00     0.00
   -               2  1.7192E005   8.415E-005     0.00  3.6752E-006     0.00      0.00     0.00
"LINE.1-2" .....   1  1.7192E005   8.4016E-005     0.00  3.7836E-006     0.00  42981.12 28654.08
   -               2  1.7193E005   8.4017E-005     0.00  3.7836E-006     0.00      0.00     0.00
"LOAD.BUS2" ....   1  1.7193E005   8.4017E-005     0.00  3.7836E-006     0.00      0.00     0.00
